/*--------------------------------*- C++ -*----------------------------------*\
  =========                 |
  \\      /  F ield         | OpenFOAM: The Open Source CFD Toolbox
   \\    /   O peration     | Website:  https://openfoam.org
    \\  /    A nd           | Version:  8
     \\/     M anipulation  |
\*---------------------------------------------------------------------------*/
FoamFile
{
    version     2.0;
    format      ascii;
    class       volScalarField;
    location    "0";
    object      T;
}
// * * * * * * * * * * * * * * * * * * * * * * * * * * * * * * * * * * * * * //

dimensions      [0 0 0 1 0 0 0];

internalField   uniform 288.15;

boundaryField
{
    up
    {
        type            empty;
    }
    down
    {
        type            empty;
    }
    geometry_top
    {
        type            zeroGradient;
    }
    geometry_inlet
    {
        type            fixedValue;
        value           uniform 288.15;
    }
    geometry_outlet
    {
        type            zeroGradient;
    }
    geometry_obstacle
    {
        type            fixedValue;
        value           uniform 373.15;
    }
}


// ************************************************************************* //
