/*--------------------------------*- C++ -*----------------------------------*\
  =========                 |
  \\      /  F ield         | OpenFOAM: The Open Source CFD Toolbox
   \\    /   O peration     | Website:  https://openfoam.org
    \\  /    A nd           | Version:  8
     \\/     M anipulation  |
\*---------------------------------------------------------------------------*/
FoamFile
{
    version     2.0;
    format      ascii;
    class       featureEdgeMesh;
    location    "constant/triSurface";
    object      geometry.eMesh;
}
// * * * * * * * * * * * * * * * * * * * * * * * * * * * * * * * * * * * * * //


// points:

976
(
(0 1 -0.05)
(0 1 0.05)
(15 1 -0.05)
(15 1 0.05)
(0 -1 -0.05)
(0 -1 0.05)
(15 -1 -0.05)
(15 -1 0.05)
(3.90735 -0.23752 -0.05)
(3.99417 0.254884 -0.05)
(3.90735 -0.23752 0.05)
(3.99417 0.254884 0.05)
(4.09265 0.23752 -0.05)
(4.09265 0.23752 0.05)
(4.00583 -0.254884 -0.05)
(4.00583 -0.254884 0.05)
(0 -0.23752 -0.05)
(0 -0.212899 -0.05)
(0 -0.188279 -0.05)
(0 -0.163659 -0.05)
(0 -0.139039 -0.05)
(0 -0.114419 -0.05)
(0 -0.0897984 -0.05)
(0 -0.0651782 -0.05)
(0 -0.040558 -0.05)
(0 -0.0159378 -0.05)
(0 0.00868241 -0.05)
(0 0.0333026 -0.05)
(0 0.0579228 -0.05)
(0 0.082543 -0.05)
(0 0.107163 -0.05)
(0 0.131783 -0.05)
(0 0.156404 -0.05)
(0 0.181024 -0.05)
(0 0.205644 -0.05)
(0 0.230264 -0.05)
(0 0.254884 -0.05)
(3.91169 -0.212899 -0.05)
(3.91603 -0.188279 -0.05)
(3.92037 -0.163659 -0.05)
(3.92471 -0.139039 -0.05)
(3.92905 -0.114419 -0.05)
(3.93339 -0.0897984 -0.05)
(3.93774 -0.0651782 -0.05)
(3.94208 -0.040558 -0.05)
(3.94642 -0.0159378 -0.05)
(3.95076 0.00868241 -0.05)
(3.9551 0.0333026 -0.05)
(3.95944 0.0579228 -0.05)
(3.96378 0.082543 -0.05)
(3.96812 0.107163 -0.05)
(3.97247 0.131783 -0.05)
(3.97681 0.156404 -0.05)
(3.98115 0.181024 -0.05)
(3.98549 0.205644 -0.05)
(3.98983 0.230264 -0.05)
(0 -0.212899 0.05)
(0 -0.23752 0.05)
(0 -0.188279 0.05)
(0 -0.163659 0.05)
(0 -0.139039 0.05)
(0 -0.114419 0.05)
(0 -0.0897984 0.05)
(0 -0.0651782 0.05)
(0 -0.040558 0.05)
(0 -0.0159378 0.05)
(0 0.00868241 0.05)
(0 0.0333026 0.05)
(0 0.0579228 0.05)
(0 0.082543 0.05)
(0 0.107163 0.05)
(0 0.131783 0.05)
(0 0.156404 0.05)
(0 0.181024 0.05)
(0 0.205644 0.05)
(0 0.230264 0.05)
(0 0.254884 0.05)
(3.91169 -0.212899 0.05)
(3.91603 -0.188279 0.05)
(3.92037 -0.163659 0.05)
(3.92471 -0.139039 0.05)
(3.92905 -0.114419 0.05)
(3.93339 -0.0897984 0.05)
(3.93774 -0.0651782 0.05)
(3.94208 -0.040558 0.05)
(3.94642 -0.0159378 0.05)
(3.95076 0.00868241 0.05)
(3.9551 0.0333026 0.05)
(3.95944 0.0579228 0.05)
(3.96378 0.082543 0.05)
(3.96812 0.107163 0.05)
(3.97247 0.131783 0.05)
(3.97681 0.156404 0.05)
(3.98115 0.181024 0.05)
(3.98549 0.205644 0.05)
(3.98983 0.230264 0.05)
(0 0.275127 -0.05)
(0 0.297998 -0.05)
(0 0.323838 -0.05)
(0 0.353033 -0.05)
(0 0.386018 -0.05)
(0 0.423286 -0.05)
(0 0.465392 -0.05)
(0 0.512965 -0.05)
(0 0.566714 -0.05)
(0 0.627442 -0.05)
(0 0.68817 -0.05)
(0 0.741919 -0.05)
(0 0.789492 -0.05)
(0 0.831599 -0.05)
(0 0.868866 -0.05)
(0 0.901852 -0.05)
(0 0.931047 -0.05)
(0 0.956887 -0.05)
(0 0.979757 -0.05)
(0.131377 1 -0.05)
(0.259841 1 -0.05)
(0.385457 1 -0.05)
(0.508288 1 -0.05)
(0.628395 1 -0.05)
(0.74584 1 -0.05)
(0.860681 1 -0.05)
(0.972975 1 -0.05)
(1.08278 1 -0.05)
(1.19015 1 -0.05)
(1.29514 1 -0.05)
(1.3978 1 -0.05)
(1.49819 1 -0.05)
(1.59635 1 -0.05)
(1.69233 1 -0.05)
(1.78619 1 -0.05)
(1.87796 1 -0.05)
(1.9677 1 -0.05)
(2.05545 1 -0.05)
(2.14126 1 -0.05)
(2.22516 1 -0.05)
(2.3072 1 -0.05)
(2.38743 1 -0.05)
(2.46587 1 -0.05)
(2.54258 1 -0.05)
(2.61758 1 -0.05)
(2.69092 1 -0.05)
(2.76264 1 -0.05)
(2.83277 1 -0.05)
(2.90134 1 -0.05)
(2.96839 1 -0.05)
(3.03395 1 -0.05)
(3.09806 1 -0.05)
(3.16075 1 -0.05)
(3.22205 1 -0.05)
(3.28199 1 -0.05)
(3.3406 1 -0.05)
(3.39791 1 -0.05)
(3.45396 1 -0.05)
(3.50875 1 -0.05)
(3.56234 1 -0.05)
(3.61473 1 -0.05)
(3.66597 1 -0.05)
(3.71607 1 -0.05)
(3.76505 1 -0.05)
(3.81295 1 -0.05)
(3.85979 1 -0.05)
(3.90559 1 -0.05)
(3.95038 1 -0.05)
(3.99417 1 -0.05)
(0 0.275127 0.05)
(0 0.297998 0.05)
(0 0.323838 0.05)
(0 0.353033 0.05)
(0 0.386018 0.05)
(0 0.423286 0.05)
(0 0.465392 0.05)
(0 0.512965 0.05)
(0 0.566714 0.05)
(0 0.627442 0.05)
(0 0.68817 0.05)
(0 0.741919 0.05)
(0 0.789492 0.05)
(0 0.831599 0.05)
(0 0.868866 0.05)
(0 0.901852 0.05)
(0 0.931047 0.05)
(0 0.956887 0.05)
(0 0.979757 0.05)
(0.131377 1 0.05)
(0.259841 1 0.05)
(0.385457 1 0.05)
(0.508288 1 0.05)
(0.628395 1 0.05)
(0.74584 1 0.05)
(0.860681 1 0.05)
(0.972975 1 0.05)
(1.08278 1 0.05)
(1.19015 1 0.05)
(1.29514 1 0.05)
(1.3978 1 0.05)
(1.49819 1 0.05)
(1.59635 1 0.05)
(1.69233 1 0.05)
(1.78619 1 0.05)
(1.87796 1 0.05)
(1.9677 1 0.05)
(2.05545 1 0.05)
(2.14126 1 0.05)
(2.22516 1 0.05)
(2.3072 1 0.05)
(2.38743 1 0.05)
(2.46587 1 0.05)
(2.54258 1 0.05)
(2.61758 1 0.05)
(2.69092 1 0.05)
(2.76264 1 0.05)
(2.83277 1 0.05)
(2.90134 1 0.05)
(2.96839 1 0.05)
(3.03395 1 0.05)
(3.09806 1 0.05)
(3.16075 1 0.05)
(3.22205 1 0.05)
(3.28199 1 0.05)
(3.3406 1 0.05)
(3.39791 1 0.05)
(3.45396 1 0.05)
(3.50875 1 0.05)
(3.56234 1 0.05)
(3.61473 1 0.05)
(3.66597 1 0.05)
(3.71607 1 0.05)
(3.76505 1 0.05)
(3.81295 1 0.05)
(3.85979 1 0.05)
(3.90559 1 0.05)
(3.95038 1 0.05)
(3.99417 1 0.05)
(4.04908 1 -0.05)
(4.10455 1 -0.05)
(4.16058 1 -0.05)
(4.21717 1 -0.05)
(4.27434 1 -0.05)
(4.33209 1 -0.05)
(4.39042 1 -0.05)
(4.44935 1 -0.05)
(4.50887 1 -0.05)
(4.56899 1 -0.05)
(4.62972 1 -0.05)
(4.69107 1 -0.05)
(4.75304 1 -0.05)
(4.81564 1 -0.05)
(4.87887 1 -0.05)
(4.94274 1 -0.05)
(5.00726 1 -0.05)
(5.07243 1 -0.05)
(5.13827 1 -0.05)
(5.20477 1 -0.05)
(5.27194 1 -0.05)
(5.33979 1 -0.05)
(5.40833 1 -0.05)
(5.47757 1 -0.05)
(5.54751 1 -0.05)
(5.61815 1 -0.05)
(5.68951 1 -0.05)
(5.7616 1 -0.05)
(5.83441 1 -0.05)
(5.90796 1 -0.05)
(5.98226 1 -0.05)
(6.05731 1 -0.05)
(6.13312 1 -0.05)
(6.2097 1 -0.05)
(6.28705 1 -0.05)
(6.36519 1 -0.05)
(6.44411 1 -0.05)
(6.52384 1 -0.05)
(6.60438 1 -0.05)
(6.68573 1 -0.05)
(6.7679 1 -0.05)
(6.85091 1 -0.05)
(6.93476 1 -0.05)
(7.01946 1 -0.05)
(7.10502 1 -0.05)
(7.19144 1 -0.05)
(7.27874 1 -0.05)
(7.36692 1 -0.05)
(7.456 1 -0.05)
(7.54597 1 -0.05)
(7.63686 1 -0.05)
(7.72867 1 -0.05)
(7.82141 1 -0.05)
(7.91509 1 -0.05)
(8.00972 1 -0.05)
(8.10531 1 -0.05)
(8.20187 1 -0.05)
(8.2994 1 -0.05)
(8.39792 1 -0.05)
(8.49744 1 -0.05)
(8.59797 1 -0.05)
(8.69952 1 -0.05)
(8.80209 1 -0.05)
(8.90571 1 -0.05)
(9.01037 1 -0.05)
(9.11609 1 -0.05)
(9.22289 1 -0.05)
(9.33076 1 -0.05)
(9.43973 1 -0.05)
(9.54981 1 -0.05)
(9.661 1 -0.05)
(9.77331 1 -0.05)
(9.88676 1 -0.05)
(10.0014 1 -0.05)
(10.1171 1 -0.05)
(10.2341 1 -0.05)
(10.3522 1 -0.05)
(10.4715 1 -0.05)
(10.592 1 -0.05)
(10.7138 1 -0.05)
(10.8368 1 -0.05)
(10.961 1 -0.05)
(11.0865 1 -0.05)
(11.2132 1 -0.05)
(11.3413 1 -0.05)
(11.4706 1 -0.05)
(11.6012 1 -0.05)
(11.7332 1 -0.05)
(11.8665 1 -0.05)
(12.0012 1 -0.05)
(12.1372 1 -0.05)
(12.2746 1 -0.05)
(12.4134 1 -0.05)
(12.5536 1 -0.05)
(12.6952 1 -0.05)
(12.8382 1 -0.05)
(12.9827 1 -0.05)
(13.1287 1 -0.05)
(13.2761 1 -0.05)
(13.4251 1 -0.05)
(13.5755 1 -0.05)
(13.7275 1 -0.05)
(13.881 1 -0.05)
(14.0361 1 -0.05)
(14.1927 1 -0.05)
(14.3509 1 -0.05)
(14.5107 1 -0.05)
(14.6722 1 -0.05)
(14.8353 1 -0.05)
(15 0.275127 -0.05)
(15 0.254884 -0.05)
(15 0.297998 -0.05)
(15 0.323838 -0.05)
(15 0.353033 -0.05)
(15 0.386018 -0.05)
(15 0.423286 -0.05)
(15 0.465392 -0.05)
(15 0.512965 -0.05)
(15 0.566714 -0.05)
(15 0.627442 -0.05)
(15 0.68817 -0.05)
(15 0.741919 -0.05)
(15 0.789492 -0.05)
(15 0.831599 -0.05)
(15 0.868866 -0.05)
(15 0.901852 -0.05)
(15 0.931047 -0.05)
(15 0.956887 -0.05)
(15 0.979757 -0.05)
(4.04908 1 0.05)
(4.10455 1 0.05)
(4.16058 1 0.05)
(4.21717 1 0.05)
(4.27434 1 0.05)
(4.33209 1 0.05)
(4.39042 1 0.05)
(4.44935 1 0.05)
(4.50887 1 0.05)
(4.56899 1 0.05)
(4.62972 1 0.05)
(4.69107 1 0.05)
(4.75304 1 0.05)
(4.81564 1 0.05)
(4.87887 1 0.05)
(4.94274 1 0.05)
(5.00726 1 0.05)
(5.07243 1 0.05)
(5.13827 1 0.05)
(5.20477 1 0.05)
(5.27194 1 0.05)
(5.33979 1 0.05)
(5.40833 1 0.05)
(5.47757 1 0.05)
(5.54751 1 0.05)
(5.61815 1 0.05)
(5.68951 1 0.05)
(5.7616 1 0.05)
(5.83441 1 0.05)
(5.90796 1 0.05)
(5.98226 1 0.05)
(6.05731 1 0.05)
(6.13312 1 0.05)
(6.2097 1 0.05)
(6.28705 1 0.05)
(6.36519 1 0.05)
(6.44411 1 0.05)
(6.52384 1 0.05)
(6.60438 1 0.05)
(6.68573 1 0.05)
(6.7679 1 0.05)
(6.85091 1 0.05)
(6.93476 1 0.05)
(7.01946 1 0.05)
(7.10502 1 0.05)
(7.19144 1 0.05)
(7.27874 1 0.05)
(7.36692 1 0.05)
(7.456 1 0.05)
(7.54597 1 0.05)
(7.63686 1 0.05)
(7.72867 1 0.05)
(7.82141 1 0.05)
(7.91509 1 0.05)
(8.00972 1 0.05)
(8.10531 1 0.05)
(8.20187 1 0.05)
(8.2994 1 0.05)
(8.39792 1 0.05)
(8.49744 1 0.05)
(8.59797 1 0.05)
(8.69952 1 0.05)
(8.80209 1 0.05)
(8.90571 1 0.05)
(9.01037 1 0.05)
(9.11609 1 0.05)
(9.22289 1 0.05)
(9.33076 1 0.05)
(9.43973 1 0.05)
(9.54981 1 0.05)
(9.661 1 0.05)
(9.77331 1 0.05)
(9.88676 1 0.05)
(10.0014 1 0.05)
(10.1171 1 0.05)
(10.2341 1 0.05)
(10.3522 1 0.05)
(10.4715 1 0.05)
(10.592 1 0.05)
(10.7138 1 0.05)
(10.8368 1 0.05)
(10.961 1 0.05)
(11.0865 1 0.05)
(11.2132 1 0.05)
(11.3413 1 0.05)
(11.4706 1 0.05)
(11.6012 1 0.05)
(11.7332 1 0.05)
(11.8665 1 0.05)
(12.0012 1 0.05)
(12.1372 1 0.05)
(12.2746 1 0.05)
(12.4134 1 0.05)
(12.5536 1 0.05)
(12.6952 1 0.05)
(12.8382 1 0.05)
(12.9827 1 0.05)
(13.1287 1 0.05)
(13.2761 1 0.05)
(13.4251 1 0.05)
(13.5755 1 0.05)
(13.7275 1 0.05)
(13.881 1 0.05)
(14.0361 1 0.05)
(14.1927 1 0.05)
(14.3509 1 0.05)
(14.5107 1 0.05)
(14.6722 1 0.05)
(14.8353 1 0.05)
(15 0.254884 0.05)
(15 0.275127 0.05)
(15 0.297998 0.05)
(15 0.323838 0.05)
(15 0.353033 0.05)
(15 0.386018 0.05)
(15 0.423286 0.05)
(15 0.465392 0.05)
(15 0.512965 0.05)
(15 0.566714 0.05)
(15 0.627442 0.05)
(15 0.68817 0.05)
(15 0.741919 0.05)
(15 0.789492 0.05)
(15 0.831599 0.05)
(15 0.868866 0.05)
(15 0.901852 0.05)
(15 0.931047 0.05)
(15 0.956887 0.05)
(15 0.979757 0.05)
(4.04341 0.246202 -0.05)
(15 0.246202 -0.05)
(15 0.23752 -0.05)
(4.04341 0.246202 0.05)
(15 0.23752 0.05)
(15 0.246202 0.05)
(0 -0.254884 -0.05)
(0 -0.246202 -0.05)
(3.95659 -0.246202 -0.05)
(0 -0.246202 0.05)
(0 -0.254884 0.05)
(3.95659 -0.246202 0.05)
(0 -0.979757 -0.05)
(0.13176 -1 -0.05)
(0 -0.956887 -0.05)
(0 -0.931047 -0.05)
(0 -0.901852 -0.05)
(0 -0.868866 -0.05)
(0 -0.831599 -0.05)
(0 -0.789492 -0.05)
(0 -0.741919 -0.05)
(0 -0.68817 -0.05)
(0 -0.627442 -0.05)
(0 -0.566714 -0.05)
(0 -0.512965 -0.05)
(0 -0.465392 -0.05)
(0 -0.423286 -0.05)
(0 -0.386018 -0.05)
(0 -0.353033 -0.05)
(0 -0.323838 -0.05)
(0 -0.297998 -0.05)
(0 -0.275127 -0.05)
(0.260599 -1 -0.05)
(0.386582 -1 -0.05)
(0.509771 -1 -0.05)
(0.630229 -1 -0.05)
(0.748017 -1 -0.05)
(0.863192 -1 -0.05)
(0.975815 -1 -0.05)
(1.08594 -1 -0.05)
(1.19362 -1 -0.05)
(1.29892 -1 -0.05)
(1.40188 -1 -0.05)
(1.50256 -1 -0.05)
(1.60101 -1 -0.05)
(1.69727 -1 -0.05)
(1.7914 -1 -0.05)
(1.88344 -1 -0.05)
(1.97345 -1 -0.05)
(2.06145 -1 -0.05)
(2.14751 -1 -0.05)
(2.23166 -1 -0.05)
(2.31394 -1 -0.05)
(2.3944 -1 -0.05)
(2.47307 -1 -0.05)
(2.55 -1 -0.05)
(2.62522 -1 -0.05)
(2.69878 -1 -0.05)
(2.7707 -1 -0.05)
(2.84103 -1 -0.05)
(2.90981 -1 -0.05)
(2.97705 -1 -0.05)
(3.04281 -1 -0.05)
(3.1071 -1 -0.05)
(3.16998 -1 -0.05)
(3.23145 -1 -0.05)
(3.29157 -1 -0.05)
(3.35035 -1 -0.05)
(3.40783 -1 -0.05)
(3.46404 -1 -0.05)
(3.51899 -1 -0.05)
(3.57273 -1 -0.05)
(3.62528 -1 -0.05)
(3.67667 -1 -0.05)
(3.72691 -1 -0.05)
(3.77604 -1 -0.05)
(3.82408 -1 -0.05)
(3.87106 -1 -0.05)
(3.91699 -1 -0.05)
(3.96191 -1 -0.05)
(4.00583 -1 -0.05)
(0.13176 -1 0.05)
(0 -0.979757 0.05)
(0 -0.956887 0.05)
(0 -0.931047 0.05)
(0 -0.901852 0.05)
(0 -0.868866 0.05)
(0 -0.831599 0.05)
(0 -0.789492 0.05)
(0 -0.741919 0.05)
(0 -0.68817 0.05)
(0 -0.627442 0.05)
(0 -0.566714 0.05)
(0 -0.512965 0.05)
(0 -0.465392 0.05)
(0 -0.423286 0.05)
(0 -0.386018 0.05)
(0 -0.353033 0.05)
(0 -0.323838 0.05)
(0 -0.297998 0.05)
(0 -0.275127 0.05)
(0.260599 -1 0.05)
(0.386582 -1 0.05)
(0.509771 -1 0.05)
(0.630229 -1 0.05)
(0.748017 -1 0.05)
(0.863192 -1 0.05)
(0.975815 -1 0.05)
(1.08594 -1 0.05)
(1.19362 -1 0.05)
(1.29892 -1 0.05)
(1.40188 -1 0.05)
(1.50256 -1 0.05)
(1.60101 -1 0.05)
(1.69727 -1 0.05)
(1.7914 -1 0.05)
(1.88344 -1 0.05)
(1.97345 -1 0.05)
(2.06145 -1 0.05)
(2.14751 -1 0.05)
(2.23166 -1 0.05)
(2.31394 -1 0.05)
(2.3944 -1 0.05)
(2.47307 -1 0.05)
(2.55 -1 0.05)
(2.62522 -1 0.05)
(2.69878 -1 0.05)
(2.7707 -1 0.05)
(2.84103 -1 0.05)
(2.90981 -1 0.05)
(2.97705 -1 0.05)
(3.04281 -1 0.05)
(3.1071 -1 0.05)
(3.16998 -1 0.05)
(3.23145 -1 0.05)
(3.29157 -1 0.05)
(3.35035 -1 0.05)
(3.40783 -1 0.05)
(3.46404 -1 0.05)
(3.51899 -1 0.05)
(3.57273 -1 0.05)
(3.62528 -1 0.05)
(3.67667 -1 0.05)
(3.72691 -1 0.05)
(3.77604 -1 0.05)
(3.82408 -1 0.05)
(3.87106 -1 0.05)
(3.91699 -1 0.05)
(3.96191 -1 0.05)
(4.00583 -1 0.05)
(4.06068 -1 -0.05)
(4.11609 -1 -0.05)
(4.17206 -1 -0.05)
(4.22859 -1 -0.05)
(4.2857 -1 -0.05)
(4.34339 -1 -0.05)
(4.40166 -1 -0.05)
(4.46052 -1 -0.05)
(4.51998 -1 -0.05)
(4.58004 -1 -0.05)
(4.64071 -1 -0.05)
(4.70199 -1 -0.05)
(4.76389 -1 -0.05)
(4.82643 -1 -0.05)
(4.88959 -1 -0.05)
(4.95339 -1 -0.05)
(5.01785 -1 -0.05)
(5.08295 -1 -0.05)
(5.14871 -1 -0.05)
(5.21514 -1 -0.05)
(5.28224 -1 -0.05)
(5.35003 -1 -0.05)
(5.41849 -1 -0.05)
(5.48766 -1 -0.05)
(5.55752 -1 -0.05)
(5.62809 -1 -0.05)
(5.69937 -1 -0.05)
(5.77138 -1 -0.05)
(5.84412 -1 -0.05)
(5.91759 -1 -0.05)
(5.99181 -1 -0.05)
(6.06678 -1 -0.05)
(6.14251 -1 -0.05)
(6.21901 -1 -0.05)
(6.29628 -1 -0.05)
(6.37433 -1 -0.05)
(6.45318 -1 -0.05)
(6.53282 -1 -0.05)
(6.61327 -1 -0.05)
(6.69454 -1 -0.05)
(6.77662 -1 -0.05)
(6.85954 -1 -0.05)
(6.9433 -1 -0.05)
(7.02791 -1 -0.05)
(7.11338 -1 -0.05)
(7.19971 -1 -0.05)
(7.28691 -1 -0.05)
(7.375 -1 -0.05)
(7.46399 -1 -0.05)
(7.55387 -1 -0.05)
(7.64466 -1 -0.05)
(7.73637 -1 -0.05)
(7.82902 -1 -0.05)
(7.9226 -1 -0.05)
(8.01713 -1 -0.05)
(8.11261 -1 -0.05)
(8.20907 -1 -0.05)
(8.3065 -1 -0.05)
(8.40491 -1 -0.05)
(8.50433 -1 -0.05)
(8.60475 -1 -0.05)
(8.70619 -1 -0.05)
(8.80866 -1 -0.05)
(8.91216 -1 -0.05)
(9.01671 -1 -0.05)
(9.12232 -1 -0.05)
(9.22901 -1 -0.05)
(9.33677 -1 -0.05)
(9.44562 -1 -0.05)
(9.55558 -1 -0.05)
(9.66665 -1 -0.05)
(9.77885 -1 -0.05)
(9.89218 -1 -0.05)
(10.0067 -1 -0.05)
(10.1223 -1 -0.05)
(10.2391 -1 -0.05)
(10.3571 -1 -0.05)
(10.4763 -1 -0.05)
(10.5967 -1 -0.05)
(10.7183 -1 -0.05)
(10.8412 -1 -0.05)
(10.9653 -1 -0.05)
(11.0906 -1 -0.05)
(11.2172 -1 -0.05)
(11.3451 -1 -0.05)
(11.4743 -1 -0.05)
(11.6048 -1 -0.05)
(11.7367 -1 -0.05)
(11.8698 -1 -0.05)
(12.0043 -1 -0.05)
(12.1402 -1 -0.05)
(12.2775 -1 -0.05)
(12.4161 -1 -0.05)
(12.5562 -1 -0.05)
(12.6976 -1 -0.05)
(12.8405 -1 -0.05)
(12.9849 -1 -0.05)
(13.1307 -1 -0.05)
(13.278 -1 -0.05)
(13.4268 -1 -0.05)
(13.577 -1 -0.05)
(13.7288 -1 -0.05)
(13.8822 -1 -0.05)
(14.0371 -1 -0.05)
(14.1936 -1 -0.05)
(14.3516 -1 -0.05)
(14.5113 -1 -0.05)
(14.6725 -1 -0.05)
(14.8354 -1 -0.05)
(15 -0.979757 -0.05)
(15 -0.956887 -0.05)
(15 -0.931047 -0.05)
(15 -0.901852 -0.05)
(15 -0.868866 -0.05)
(15 -0.831599 -0.05)
(15 -0.789492 -0.05)
(15 -0.741919 -0.05)
(15 -0.68817 -0.05)
(15 -0.627442 -0.05)
(15 -0.566714 -0.05)
(15 -0.512965 -0.05)
(15 -0.465392 -0.05)
(15 -0.423286 -0.05)
(15 -0.386018 -0.05)
(15 -0.353033 -0.05)
(15 -0.323838 -0.05)
(15 -0.297998 -0.05)
(15 -0.275127 -0.05)
(15 -0.254884 -0.05)
(4.06068 -1 0.05)
(4.11609 -1 0.05)
(4.17206 -1 0.05)
(4.22859 -1 0.05)
(4.2857 -1 0.05)
(4.34339 -1 0.05)
(4.40166 -1 0.05)
(4.46052 -1 0.05)
(4.51998 -1 0.05)
(4.58004 -1 0.05)
(4.64071 -1 0.05)
(4.70199 -1 0.05)
(4.76389 -1 0.05)
(4.82643 -1 0.05)
(4.88959 -1 0.05)
(4.95339 -1 0.05)
(5.01785 -1 0.05)
(5.08295 -1 0.05)
(5.14871 -1 0.05)
(5.21514 -1 0.05)
(5.28224 -1 0.05)
(5.35003 -1 0.05)
(5.41849 -1 0.05)
(5.48766 -1 0.05)
(5.55752 -1 0.05)
(5.62809 -1 0.05)
(5.69937 -1 0.05)
(5.77138 -1 0.05)
(5.84412 -1 0.05)
(5.91759 -1 0.05)
(5.99181 -1 0.05)
(6.06678 -1 0.05)
(6.14251 -1 0.05)
(6.21901 -1 0.05)
(6.29628 -1 0.05)
(6.37433 -1 0.05)
(6.45318 -1 0.05)
(6.53282 -1 0.05)
(6.61327 -1 0.05)
(6.69454 -1 0.05)
(6.77662 -1 0.05)
(6.85954 -1 0.05)
(6.9433 -1 0.05)
(7.02791 -1 0.05)
(7.11338 -1 0.05)
(7.19971 -1 0.05)
(7.28691 -1 0.05)
(7.375 -1 0.05)
(7.46399 -1 0.05)
(7.55387 -1 0.05)
(7.64466 -1 0.05)
(7.73637 -1 0.05)
(7.82902 -1 0.05)
(7.9226 -1 0.05)
(8.01713 -1 0.05)
(8.11261 -1 0.05)
(8.20907 -1 0.05)
(8.3065 -1 0.05)
(8.40491 -1 0.05)
(8.50433 -1 0.05)
(8.60475 -1 0.05)
(8.70619 -1 0.05)
(8.80866 -1 0.05)
(8.91216 -1 0.05)
(9.01671 -1 0.05)
(9.12232 -1 0.05)
(9.22901 -1 0.05)
(9.33677 -1 0.05)
(9.44562 -1 0.05)
(9.55558 -1 0.05)
(9.66665 -1 0.05)
(9.77885 -1 0.05)
(9.89218 -1 0.05)
(10.0067 -1 0.05)
(10.1223 -1 0.05)
(10.2391 -1 0.05)
(10.3571 -1 0.05)
(10.4763 -1 0.05)
(10.5967 -1 0.05)
(10.7183 -1 0.05)
(10.8412 -1 0.05)
(10.9653 -1 0.05)
(11.0906 -1 0.05)
(11.2172 -1 0.05)
(11.3451 -1 0.05)
(11.4743 -1 0.05)
(11.6048 -1 0.05)
(11.7367 -1 0.05)
(11.8698 -1 0.05)
(12.0043 -1 0.05)
(12.1402 -1 0.05)
(12.2775 -1 0.05)
(12.4161 -1 0.05)
(12.5562 -1 0.05)
(12.6976 -1 0.05)
(12.8405 -1 0.05)
(12.9849 -1 0.05)
(13.1307 -1 0.05)
(13.278 -1 0.05)
(13.4268 -1 0.05)
(13.577 -1 0.05)
(13.7288 -1 0.05)
(13.8822 -1 0.05)
(14.0371 -1 0.05)
(14.1936 -1 0.05)
(14.3516 -1 0.05)
(14.5113 -1 0.05)
(14.6725 -1 0.05)
(14.8354 -1 0.05)
(15 -0.979757 0.05)
(15 -0.956887 0.05)
(15 -0.931047 0.05)
(15 -0.901852 0.05)
(15 -0.868866 0.05)
(15 -0.831599 0.05)
(15 -0.789492 0.05)
(15 -0.741919 0.05)
(15 -0.68817 0.05)
(15 -0.627442 0.05)
(15 -0.566714 0.05)
(15 -0.512965 0.05)
(15 -0.465392 0.05)
(15 -0.423286 0.05)
(15 -0.386018 0.05)
(15 -0.353033 0.05)
(15 -0.323838 0.05)
(15 -0.297998 0.05)
(15 -0.275127 0.05)
(15 -0.254884 0.05)
(4.01017 -0.230264 -0.05)
(4.01451 -0.205644 -0.05)
(4.01885 -0.181024 -0.05)
(4.02319 -0.156404 -0.05)
(4.02753 -0.131783 -0.05)
(4.03188 -0.107163 -0.05)
(4.03622 -0.082543 -0.05)
(4.04056 -0.0579228 -0.05)
(4.0449 -0.0333026 -0.05)
(4.04924 -0.00868241 -0.05)
(4.05358 0.0159378 -0.05)
(4.05792 0.040558 -0.05)
(4.06226 0.0651782 -0.05)
(4.06661 0.0897984 -0.05)
(4.07095 0.114419 -0.05)
(4.07529 0.139039 -0.05)
(4.07963 0.163659 -0.05)
(4.08397 0.188279 -0.05)
(4.08831 0.212899 -0.05)
(15 -0.230264 -0.05)
(15 -0.205644 -0.05)
(15 -0.181024 -0.05)
(15 -0.156404 -0.05)
(15 -0.131783 -0.05)
(15 -0.107163 -0.05)
(15 -0.082543 -0.05)
(15 -0.0579228 -0.05)
(15 -0.0333026 -0.05)
(15 -0.00868241 -0.05)
(15 0.0159378 -0.05)
(15 0.040558 -0.05)
(15 0.0651782 -0.05)
(15 0.0897984 -0.05)
(15 0.114419 -0.05)
(15 0.139039 -0.05)
(15 0.163659 -0.05)
(15 0.188279 -0.05)
(15 0.212899 -0.05)
(4.01017 -0.230264 0.05)
(4.01451 -0.205644 0.05)
(4.01885 -0.181024 0.05)
(4.02319 -0.156404 0.05)
(4.02753 -0.131783 0.05)
(4.03188 -0.107163 0.05)
(4.03622 -0.082543 0.05)
(4.04056 -0.0579228 0.05)
(4.0449 -0.0333026 0.05)
(4.04924 -0.00868241 0.05)
(4.05358 0.0159378 0.05)
(4.05792 0.040558 0.05)
(4.06226 0.0651782 0.05)
(4.06661 0.0897984 0.05)
(4.07095 0.114419 0.05)
(4.07529 0.139039 0.05)
(4.07963 0.163659 0.05)
(4.08397 0.188279 0.05)
(4.08831 0.212899 0.05)
(15 -0.230264 0.05)
(15 -0.205644 0.05)
(15 -0.181024 0.05)
(15 -0.156404 0.05)
(15 -0.131783 0.05)
(15 -0.107163 0.05)
(15 -0.082543 0.05)
(15 -0.0579228 0.05)
(15 -0.0333026 0.05)
(15 -0.00868241 0.05)
(15 0.0159378 0.05)
(15 0.040558 0.05)
(15 0.0651782 0.05)
(15 0.0897984 0.05)
(15 0.114419 0.05)
(15 0.139039 0.05)
(15 0.163659 0.05)
(15 0.188279 0.05)
(15 0.212899 0.05)
)


// edges:

984
(
(16 17)
(17 18)
(18 19)
(19 20)
(20 21)
(21 22)
(22 23)
(23 24)
(24 25)
(25 26)
(26 27)
(27 28)
(28 29)
(29 30)
(30 31)
(31 32)
(32 33)
(33 34)
(34 35)
(35 36)
(37 8)
(38 37)
(39 38)
(40 39)
(41 40)
(42 41)
(43 42)
(44 43)
(45 44)
(46 45)
(47 46)
(48 47)
(49 48)
(50 49)
(51 50)
(52 51)
(53 52)
(54 53)
(55 54)
(9 55)
(56 57)
(58 56)
(59 58)
(60 59)
(61 60)
(62 61)
(63 62)
(64 63)
(65 64)
(66 65)
(67 66)
(68 67)
(69 68)
(70 69)
(71 70)
(72 71)
(73 72)
(74 73)
(75 74)
(76 75)
(10 77)
(77 78)
(78 79)
(79 80)
(80 81)
(81 82)
(82 83)
(83 84)
(84 85)
(85 86)
(86 87)
(87 88)
(88 89)
(89 90)
(90 91)
(91 92)
(92 93)
(93 94)
(94 95)
(95 11)
(36 96)
(96 97)
(97 98)
(98 99)
(99 100)
(100 101)
(101 102)
(102 103)
(103 104)
(104 105)
(105 106)
(106 107)
(107 108)
(108 109)
(109 110)
(110 111)
(111 112)
(112 113)
(113 114)
(0 115)
(114 0)
(115 116)
(116 117)
(117 118)
(118 119)
(119 120)
(120 121)
(121 122)
(122 123)
(123 124)
(124 125)
(125 126)
(126 127)
(127 128)
(128 129)
(129 130)
(130 131)
(131 132)
(132 133)
(133 134)
(134 135)
(135 136)
(136 137)
(137 138)
(138 139)
(139 140)
(140 141)
(141 142)
(142 143)
(143 144)
(144 145)
(145 146)
(146 147)
(147 148)
(148 149)
(149 150)
(150 151)
(151 152)
(152 153)
(153 154)
(154 155)
(155 156)
(156 157)
(157 158)
(158 159)
(159 160)
(160 161)
(161 162)
(162 163)
(163 164)
(165 76)
(166 165)
(167 166)
(168 167)
(169 168)
(170 169)
(171 170)
(172 171)
(173 172)
(174 173)
(175 174)
(176 175)
(177 176)
(178 177)
(179 178)
(180 179)
(181 180)
(182 181)
(183 182)
(184 1)
(1 183)
(185 184)
(186 185)
(187 186)
(188 187)
(189 188)
(190 189)
(191 190)
(192 191)
(193 192)
(194 193)
(195 194)
(196 195)
(197 196)
(198 197)
(199 198)
(200 199)
(201 200)
(202 201)
(203 202)
(204 203)
(205 204)
(206 205)
(207 206)
(208 207)
(209 208)
(210 209)
(211 210)
(212 211)
(213 212)
(214 213)
(215 214)
(216 215)
(217 216)
(218 217)
(219 218)
(220 219)
(221 220)
(222 221)
(223 222)
(224 223)
(225 224)
(226 225)
(227 226)
(228 227)
(229 228)
(230 229)
(231 230)
(232 231)
(233 232)
(164 234)
(234 235)
(235 236)
(236 237)
(237 238)
(238 239)
(239 240)
(240 241)
(241 242)
(242 243)
(243 244)
(244 245)
(245 246)
(246 247)
(247 248)
(248 249)
(249 250)
(250 251)
(251 252)
(252 253)
(253 254)
(254 255)
(255 256)
(256 257)
(257 258)
(258 259)
(259 260)
(260 261)
(261 262)
(262 263)
(263 264)
(264 265)
(265 266)
(266 267)
(267 268)
(268 269)
(269 270)
(270 271)
(271 272)
(272 273)
(273 274)
(274 275)
(275 276)
(276 277)
(277 278)
(278 279)
(279 280)
(280 281)
(281 282)
(282 283)
(283 284)
(284 285)
(285 286)
(286 287)
(287 288)
(288 289)
(289 290)
(290 291)
(291 292)
(292 293)
(293 294)
(294 295)
(295 296)
(296 297)
(297 298)
(298 299)
(299 300)
(300 301)
(301 302)
(302 303)
(303 304)
(304 305)
(305 306)
(306 307)
(307 308)
(308 309)
(309 310)
(310 311)
(311 312)
(312 313)
(313 314)
(314 315)
(315 316)
(316 317)
(317 318)
(318 319)
(319 320)
(320 321)
(321 322)
(322 323)
(323 324)
(324 325)
(325 326)
(326 327)
(327 328)
(328 329)
(329 330)
(330 331)
(331 332)
(332 333)
(333 334)
(334 335)
(335 336)
(336 337)
(337 338)
(338 339)
(339 340)
(340 341)
(341 342)
(343 344)
(345 343)
(346 345)
(347 346)
(348 347)
(349 348)
(350 349)
(351 350)
(352 351)
(353 352)
(354 353)
(355 354)
(356 355)
(357 356)
(358 357)
(359 358)
(360 359)
(361 360)
(362 361)
(342 2)
(2 362)
(363 233)
(364 363)
(365 364)
(366 365)
(367 366)
(368 367)
(369 368)
(370 369)
(371 370)
(372 371)
(373 372)
(374 373)
(375 374)
(376 375)
(377 376)
(378 377)
(379 378)
(380 379)
(381 380)
(382 381)
(383 382)
(384 383)
(385 384)
(386 385)
(387 386)
(388 387)
(389 388)
(390 389)
(391 390)
(392 391)
(393 392)
(394 393)
(395 394)
(396 395)
(397 396)
(398 397)
(399 398)
(400 399)
(401 400)
(402 401)
(403 402)
(404 403)
(405 404)
(406 405)
(407 406)
(408 407)
(409 408)
(410 409)
(411 410)
(412 411)
(413 412)
(414 413)
(415 414)
(416 415)
(417 416)
(418 417)
(419 418)
(420 419)
(421 420)
(422 421)
(423 422)
(424 423)
(425 424)
(426 425)
(427 426)
(428 427)
(429 428)
(430 429)
(431 430)
(432 431)
(433 432)
(434 433)
(435 434)
(436 435)
(437 436)
(438 437)
(439 438)
(440 439)
(441 440)
(442 441)
(443 442)
(444 443)
(445 444)
(446 445)
(447 446)
(448 447)
(449 448)
(450 449)
(451 450)
(452 451)
(453 452)
(454 453)
(455 454)
(456 455)
(457 456)
(458 457)
(459 458)
(460 459)
(461 460)
(462 461)
(463 462)
(464 463)
(465 464)
(466 465)
(467 466)
(468 467)
(469 468)
(470 469)
(471 470)
(472 473)
(473 474)
(474 475)
(475 476)
(476 477)
(477 478)
(478 479)
(479 480)
(480 481)
(481 482)
(482 483)
(483 484)
(484 485)
(485 486)
(486 487)
(487 488)
(488 489)
(489 490)
(490 491)
(491 3)
(3 471)
(12 492)
(492 9)
(493 494)
(344 493)
(495 13)
(11 495)
(496 497)
(497 472)
(498 499)
(499 16)
(500 14)
(8 500)
(501 502)
(57 501)
(15 503)
(503 10)
(4 504)
(505 4)
(504 506)
(506 507)
(507 508)
(508 509)
(509 510)
(510 511)
(511 512)
(512 513)
(513 514)
(514 515)
(515 516)
(516 517)
(517 518)
(518 519)
(519 520)
(520 521)
(521 522)
(522 523)
(523 498)
(524 505)
(525 524)
(526 525)
(527 526)
(528 527)
(529 528)
(530 529)
(531 530)
(532 531)
(533 532)
(534 533)
(535 534)
(536 535)
(537 536)
(538 537)
(539 538)
(540 539)
(541 540)
(542 541)
(543 542)
(544 543)
(545 544)
(546 545)
(547 546)
(548 547)
(549 548)
(550 549)
(551 550)
(552 551)
(553 552)
(554 553)
(555 554)
(556 555)
(557 556)
(558 557)
(559 558)
(560 559)
(561 560)
(562 561)
(563 562)
(564 563)
(565 564)
(566 565)
(567 566)
(568 567)
(569 568)
(570 569)
(571 570)
(572 571)
(5 573)
(574 5)
(575 574)
(576 575)
(577 576)
(578 577)
(579 578)
(580 579)
(581 580)
(582 581)
(583 582)
(584 583)
(585 584)
(586 585)
(587 586)
(588 587)
(589 588)
(590 589)
(591 590)
(592 591)
(502 592)
(573 593)
(593 594)
(594 595)
(595 596)
(596 597)
(597 598)
(598 599)
(599 600)
(600 601)
(601 602)
(602 603)
(603 604)
(604 605)
(605 606)
(606 607)
(607 608)
(608 609)
(609 610)
(610 611)
(611 612)
(612 613)
(613 614)
(614 615)
(615 616)
(616 617)
(617 618)
(618 619)
(619 620)
(620 621)
(621 622)
(622 623)
(623 624)
(624 625)
(625 626)
(626 627)
(627 628)
(628 629)
(629 630)
(630 631)
(631 632)
(632 633)
(633 634)
(634 635)
(635 636)
(636 637)
(637 638)
(638 639)
(639 640)
(640 641)
(642 572)
(643 642)
(644 643)
(645 644)
(646 645)
(647 646)
(648 647)
(649 648)
(650 649)
(651 650)
(652 651)
(653 652)
(654 653)
(655 654)
(656 655)
(657 656)
(658 657)
(659 658)
(660 659)
(661 660)
(662 661)
(663 662)
(664 663)
(665 664)
(666 665)
(667 666)
(668 667)
(669 668)
(670 669)
(671 670)
(672 671)
(673 672)
(674 673)
(675 674)
(676 675)
(677 676)
(678 677)
(679 678)
(680 679)
(681 680)
(682 681)
(683 682)
(684 683)
(685 684)
(686 685)
(687 686)
(688 687)
(689 688)
(690 689)
(691 690)
(692 691)
(693 692)
(694 693)
(695 694)
(696 695)
(697 696)
(698 697)
(699 698)
(700 699)
(701 700)
(702 701)
(703 702)
(704 703)
(705 704)
(706 705)
(707 706)
(708 707)
(709 708)
(710 709)
(711 710)
(712 711)
(713 712)
(714 713)
(715 714)
(716 715)
(717 716)
(718 717)
(719 718)
(720 719)
(721 720)
(722 721)
(723 722)
(724 723)
(725 724)
(726 725)
(727 726)
(728 727)
(729 728)
(730 729)
(731 730)
(732 731)
(733 732)
(734 733)
(735 734)
(736 735)
(737 736)
(738 737)
(739 738)
(740 739)
(741 740)
(742 741)
(743 742)
(744 743)
(745 744)
(746 745)
(747 746)
(748 747)
(749 748)
(750 749)
(6 750)
(751 6)
(752 751)
(753 752)
(754 753)
(755 754)
(756 755)
(757 756)
(758 757)
(759 758)
(760 759)
(761 760)
(762 761)
(763 762)
(764 763)
(765 764)
(766 765)
(767 766)
(768 767)
(769 768)
(770 769)
(641 771)
(771 772)
(772 773)
(773 774)
(774 775)
(775 776)
(776 777)
(777 778)
(778 779)
(779 780)
(780 781)
(781 782)
(782 783)
(783 784)
(784 785)
(785 786)
(786 787)
(787 788)
(788 789)
(789 790)
(790 791)
(791 792)
(792 793)
(793 794)
(794 795)
(795 796)
(796 797)
(797 798)
(798 799)
(799 800)
(800 801)
(801 802)
(802 803)
(803 804)
(804 805)
(805 806)
(806 807)
(807 808)
(808 809)
(809 810)
(810 811)
(811 812)
(812 813)
(813 814)
(814 815)
(815 816)
(816 817)
(817 818)
(818 819)
(819 820)
(820 821)
(821 822)
(822 823)
(823 824)
(824 825)
(825 826)
(826 827)
(827 828)
(828 829)
(829 830)
(830 831)
(831 832)
(832 833)
(833 834)
(834 835)
(835 836)
(836 837)
(837 838)
(838 839)
(839 840)
(840 841)
(841 842)
(842 843)
(843 844)
(844 845)
(845 846)
(846 847)
(847 848)
(848 849)
(849 850)
(850 851)
(851 852)
(852 853)
(853 854)
(854 855)
(855 856)
(856 857)
(857 858)
(858 859)
(859 860)
(860 861)
(861 862)
(862 863)
(863 864)
(864 865)
(865 866)
(866 867)
(867 868)
(868 869)
(869 870)
(870 871)
(871 872)
(872 873)
(873 874)
(874 875)
(875 876)
(876 877)
(877 878)
(878 879)
(879 7)
(7 880)
(880 881)
(881 882)
(882 883)
(883 884)
(884 885)
(885 886)
(886 887)
(887 888)
(888 889)
(889 890)
(890 891)
(891 892)
(892 893)
(893 894)
(894 895)
(895 896)
(896 897)
(897 898)
(898 899)
(14 900)
(900 901)
(901 902)
(902 903)
(903 904)
(904 905)
(905 906)
(906 907)
(907 908)
(908 909)
(909 910)
(910 911)
(911 912)
(912 913)
(913 914)
(914 915)
(915 916)
(916 917)
(917 918)
(918 12)
(919 770)
(920 919)
(921 920)
(922 921)
(923 922)
(924 923)
(925 924)
(926 925)
(927 926)
(928 927)
(929 928)
(930 929)
(931 930)
(932 931)
(933 932)
(934 933)
(935 934)
(936 935)
(937 936)
(494 937)
(938 15)
(939 938)
(940 939)
(941 940)
(942 941)
(943 942)
(944 943)
(945 944)
(946 945)
(947 946)
(948 947)
(949 948)
(950 949)
(951 950)
(952 951)
(953 952)
(954 953)
(955 954)
(956 955)
(13 956)
(899 957)
(957 958)
(958 959)
(959 960)
(960 961)
(961 962)
(962 963)
(963 964)
(964 965)
(965 966)
(966 967)
(967 968)
(968 969)
(969 970)
(970 971)
(971 972)
(972 973)
(973 974)
(974 975)
(975 496)
(0 1)
(3 2)
(5 4)
(6 7)
(12 13)
(11 9)
(14 15)
(8 10)
)

// * * * * * * * * * * * * * * * * * * * * * * * * * * * * * * * * * * * * * //


// ************************************************************************* //
