/*--------------------------------*- C++ -*----------------------------------*\
  =========                 |
  \\      /  F ield         | OpenFOAM: The Open Source CFD Toolbox
   \\    /   O peration     | Website:  https://openfoam.org
    \\  /    A nd           | Version:  6
     \\/     M anipulation  |
\*---------------------------------------------------------------------------*/
FoamFile
{
    version     2.0;
    format      ascii;
    class       dictionary;
    location    "system";
    object      fvSchemes;
}
// * * * * * * * * * * * * * * * * * * * * * * * * * * * * * * * * * * * * * //
ddtSchemes
{
    default         Euler;
}

gradSchemes
{
    default         cellLimited Gauss linear 0;
    grad(U)         cellLimited Gauss linear 0.333;
}

divSchemes
{

    div(phi,U)      Gauss linearUpwind grad(U);
    div(phi,e)      Gauss limitedLinear 1;
    div(phi,h) Gauss limitedLinear 1;

    div(phiv,p)     Gauss linear;
    div(phi,K)      Gauss linear;

    div(((rho*nuEff)*dev2(T(grad(U))))) Gauss linear;
}

laplacianSchemes
{
    default         Gauss linear limited 1.0;
}

interpolationSchemes
{
    default         linear;
}

snGradSchemes
{
    default         limited 1.0;
}

wallDist
{
    method meshWave;
}

// ************************************************************************* //